<?xml version="1.0" encoding="UTF-8"?>

<!-- generated on 2026-02-16 14:21:28 by Eclipse SUMO netedit Version 1.21.0
<neteditConfiguration xmlns:xsi="http://www.w3.org/2001/XMLSchema-instance" xsi:noNamespaceSchemaLocation="http://sumo.dlr.de/xsd/neteditConfiguration.xsd">

    <input>
        <sumo-net-file value="C:\Users\kmalena\Desktop\ITSC_2026_Modelle\Diss_Modelle\Simulationsdateien\Allgemein\K0583.net.xml"/>
    </input>

    <output>
        <output-file value="C:\Users\kmalena\Desktop\ITSC_2026_Modelle\Diss_Modelle\Simulationsdateien\Allgemein\K0583.net.xml"/>
        <output.street-names value="true"/>
    </output>

    <processing>
        <geometry.min-radius.fix.railways value="false"/>
        <geometry.max-grade.fix value="false"/>
        <offset.disable-normalization value="true"/>
        <lefthand value="0"/>
    </processing>

    <junctions>
        <no-internal-links value="false"/>
        <no-turnarounds value="true"/>
        <junctions.corner-detail value="5"/>
        <junctions.limit-turn-speed value="5.50"/>
        <rectangular-lane-cut value="0"/>
    </junctions>

    <pedestrian>
        <walkingareas value="0"/>
    </pedestrian>

</neteditConfiguration>
-->

<net version="1.20" junctionCornerDetail="5" limitTurnSpeed="5.50" xmlns:xsi="http://www.w3.org/2001/XMLSchema-instance" xsi:noNamespaceSchemaLocation="http://sumo.dlr.de/xsd/net_file.xsd">

    <location netOffset="-478438.03,-5731420.75" convBoundary="758.80,1046.39,1214.26,1432.52" origBoundary="8.673358,51.708973,8.737722,51.761864" projParameter="+proj=utm +zone=32 +ellps=WGS84 +datum=WGS84 +units=m +no_defs"/>

    <type id="highway.residential" priority="4" numLanes="1" speed="13.89" disallow="tram rail_urban rail rail_electric ship" oneway="0"/>
    <type id="highway.secondary" priority="7" numLanes="2" speed="27.78" disallow="tram rail_urban rail rail_electric ship" oneway="0"/>
    <type id="highway.service" priority="2" numLanes="1" speed="5.56" allow="pedestrian delivery bicycle" oneway="0"/>

    <edge id=":0000000002_w0" function="walkingarea">
        <lane id=":0000000002_w0_0" index="0" allow="pedestrian" speed="2.78" length="8.40" width="2.00" shape="1082.39,1360.53 1080.55,1361.33 1090.11,1357.21 1088.27,1358.01"/>
    </edge>
    <edge id=":251048316_0" function="internal">
        <lane id=":251048316_0_0" index="0" disallow="pedestrian tram rail_urban rail rail_electric rail_fast ship cable_car subway" speed="8.33" length="9.01" shape="986.85,1200.74 984.73,1199.24 982.98,1198.70 981.11,1198.32 978.64,1197.30"/>
    </edge>
    <edge id=":251048316_1" function="internal">
        <lane id=":251048316_1_0" index="0" disallow="pedestrian tram rail_urban rail rail_electric rail_fast ship cable_car subway" speed="8.33" length="10.83" shape="980.18,1194.49 983.21,1195.20 985.91,1194.70 988.55,1194.50 991.39,1196.07"/>
        <lane id=":251048316_1_1" index="1" disallow="pedestrian tram rail_urban rail rail_electric rail_fast ship cable_car subway" speed="8.33" length="10.83" shape="980.18,1194.49 982.90,1195.61 984.96,1196.03 986.88,1196.65 989.16,1198.37"/>
    </edge>
    <edge id=":251048317_0" function="internal">
        <lane id=":251048317_0_0" index="0" disallow="pedestrian tram rail_urban rail rail_electric rail_fast ship cable_car subway" speed="8.33" length="0.68" shape="1037.42,1255.51 1037.33,1255.33 1037.26,1255.21 1037.17,1255.10 1037.05,1254.94"/>
    </edge>
    <edge id=":251048317_1" function="internal">
        <lane id=":251048317_1_0" index="0" disallow="pedestrian tram rail_urban rail rail_electric rail_fast ship cable_car subway" speed="8.33" length="1.59" shape="1042.06,1250.96 1042.41,1251.40 1042.64,1251.72 1042.83,1252.05 1043.09,1252.55"/>
        <lane id=":251048317_1_1" index="1" disallow="pedestrian tram rail_urban rail rail_electric rail_fast ship cable_car subway" speed="8.33" length="1.59" shape="1039.55,1252.95 1039.79,1253.25 1039.94,1253.46 1040.08,1253.69 1040.26,1254.03"/>
    </edge>
    <edge id=":251048317_w0" function="walkingarea">
        <lane id=":251048317_w0_0" index="0" allow="pedestrian" speed="2.78" length="0.19" width="2.00" shape="1035.80,1255.93 1034.23,1257.17 1036.00,1256.25 1035.96,1256.18 1035.94,1256.13 1035.91,1256.08 1035.88,1256.04 1035.85,1256.00"/>
    </edge>
    <edge id=":251048317_w1" function="walkingarea">
        <lane id=":251048317_w1_0" index="0" allow="pedestrian" speed="2.78" length="2.39" width="2.00" shape="1044.51,1251.81 1046.29,1250.88 1046.03,1250.39 1045.83,1250.03 1045.66,1249.75 1045.47,1249.47 1045.22,1249.15 1044.87,1248.72 1043.32,1249.98 1043.60,1250.32 1043.81,1250.60 1043.98,1250.84 1044.13,1251.08 1044.29,1251.39"/>
    </edge>
    <edge id=":2553273423_0" function="internal">
        <lane id=":2553273423_0_0" index="0" disallow="pedestrian tram rail_urban rail rail_electric rail_fast ship cable_car subway" speed="13.89" length="8.39" shape="1131.58,1222.32 1129.42,1223.56 1127.96,1224.45 1126.57,1225.42 1124.60,1226.95"/>
    </edge>
    <edge id=":2553273423_1" function="internal">
        <lane id=":2553273423_1_0" index="0" allow="delivery bicycle" speed="7.32" length="3.06" shape="1131.58,1222.32 1128.83,1223.29 1128.69,1223.27"/>
    </edge>
    <edge id=":2553273423_8" function="internal">
        <lane id=":2553273423_8_0" index="0" allow="delivery bicycle" speed="7.32" length="9.03" shape="1128.69,1223.27 1126.31,1222.91 1124.01,1221.16 1121.94,1218.06"/>
    </edge>
    <edge id=":2553273423_2" function="internal">
        <lane id=":2553273423_2_0" index="0" allow="pedestrian" speed="4.79" length="4.56" width="2.00" shape="1124.78,1216.59 1125.47,1217.49 1126.35,1217.90 1127.42,1217.84 1128.69,1217.30"/>
        <lane id=":2553273423_2_1" index="1" allow="delivery bicycle" speed="5.66" length="6.79" shape="1124.78,1216.59 1126.00,1218.49 1127.27,1219.62 1128.60,1219.98 1129.99,1219.55"/>
    </edge>
    <edge id=":2553273423_4" function="internal">
        <lane id=":2553273423_4_0" index="0" allow="delivery bicycle" speed="7.73" length="11.27" shape="1124.78,1216.59 1126.18,1219.95 1126.61,1222.80 1126.09,1225.13 1124.60,1226.95"/>
    </edge>
    <edge id=":2553273423_5" function="internal">
        <lane id=":2553273423_5_0" index="0" allow="pedestrian delivery bicycle" speed="3.65" length="4.67" shape="1124.78,1216.59 1124.62,1218.02 1124.09,1218.74 1123.20,1218.76 1121.94,1218.06"/>
    </edge>
    <edge id=":2553273423_6" function="internal">
        <lane id=":2553273423_6_0" index="0" allow="delivery bicycle" speed="5.69" length="6.47" shape="1122.27,1223.97 1123.04,1223.15 1123.24,1221.89 1122.87,1220.19 1121.94,1218.06"/>
    </edge>
    <edge id=":2553273423_7" function="internal">
        <lane id=":2553273423_7_0" index="0" disallow="pedestrian tram rail_urban rail rail_electric rail_fast ship cable_car subway" speed="13.89" length="8.89" shape="1122.27,1223.97 1129.99,1219.55"/>
    </edge>
    <edge id=":2553273423_w0" function="walkingarea">
        <lane id=":2553273423_w0_0" index="0" allow="pedestrian" speed="2.78" length="8.01" width="2.00" shape="1125.58,1228.21 1126.82,1229.78 1133.38,1225.44 1132.38,1223.71 1130.88,1224.57 1129.76,1225.22 1128.86,1225.77 1127.99,1226.37 1126.96,1227.13"/>
    </edge>
    <edge id=":2553273423_w1" function="walkingarea">
        <lane id=":2553273423_w1_0" index="0" allow="pedestrian" speed="2.78" length="5.67" width="3.20" shape="1129.19,1218.16 1128.19,1216.43 1126.20,1215.85 1123.36,1217.32 1120.52,1218.80 1120.15,1221.03 1121.14,1222.77"/>
    </edge>
    <edge id=":3051630731_0" function="internal">
        <lane id=":3051630731_0_0" index="0" disallow="pedestrian tram rail_urban rail rail_electric rail_fast ship cable_car subway" speed="16.66" length="0.27" shape="992.84,1303.04 992.61,1303.18"/>
    </edge>
    <edge id=":3051630731_1" function="internal">
        <lane id=":3051630731_1_0" index="0" disallow="pedestrian tram rail_urban rail rail_electric rail_fast ship cable_car subway" speed="16.66" length="0.31" shape="989.33,1297.68 989.61,1297.52"/>
        <lane id=":3051630731_1_1" index="1" disallow="pedestrian tram rail_urban rail rail_electric rail_fast ship cable_car subway" speed="16.66" length="0.31" shape="990.97,1300.43 991.22,1300.28"/>
    </edge>
    <edge id=":3074998451_0" function="internal">
        <lane id=":3074998451_0_0" index="0" disallow="pedestrian tram rail_urban rail rail_electric rail_fast ship cable_car subway" speed="8.33" length="0.29" shape="891.47,1353.66 891.72,1353.51"/>
    </edge>
    <edge id=":3074998452_0" function="internal">
        <lane id=":3074998452_0_0" index="0" disallow="pedestrian tram rail_urban rail rail_electric rail_fast ship cable_car subway" speed="8.33" length="0.30" shape="857.60,1373.67 857.86,1373.52"/>
    </edge>
    <edge id=":3074998453_0" function="internal">
        <lane id=":3074998453_0_0" index="0" disallow="pedestrian tram rail_urban rail rail_electric rail_fast ship cable_car subway" speed="13.89" length="0.30" shape="920.31,1337.21 920.57,1337.06"/>
    </edge>
    <edge id=":3074998454_0" function="internal">
        <lane id=":3074998454_0_0" index="0" disallow="pedestrian tram rail_urban rail rail_electric rail_fast ship cable_car subway" speed="8.33" length="0.30" shape="824.19,1392.98 824.45,1392.83"/>
    </edge>
    <edge id=":3074998455_0" function="internal">
        <lane id=":3074998455_0_0" index="0" disallow="pedestrian tram rail_urban rail rail_electric rail_fast ship cable_car subway" speed="8.33" length="0.30" shape="789.76,1412.78 790.02,1412.63"/>
    </edge>
    <edge id=":3074998457_0" function="internal">
        <lane id=":3074998457_0_0" index="0" disallow="pedestrian tram rail_urban rail rail_electric rail_fast ship cable_car subway" speed="8.33" length="0.14" shape="895.39,1155.71 895.52,1155.75"/>
    </edge>
    <edge id=":3074998458_0" function="internal">
        <lane id=":3074998458_0_0" index="0" disallow="pedestrian tram rail_urban rail rail_electric rail_fast ship cable_car subway" speed="4.31" length="1.15" shape="885.34,1152.29 885.53,1152.57 885.69,1152.74 885.90,1152.85 886.22,1152.96"/>
    </edge>
    <edge id=":3074998460_0" function="internal">
        <lane id=":3074998460_0_0" index="0" disallow="pedestrian tram rail_urban rail rail_electric rail_fast ship cable_car subway" speed="8.33" length="0.10" shape="866.18,1122.45 866.13,1122.37"/>
    </edge>
    <edge id=":3074998461_0" function="internal">
        <lane id=":3074998461_0_0" index="0" disallow="pedestrian tram rail_urban rail rail_electric rail_fast ship cable_car subway" speed="8.33" length="0.10" shape="847.11,1088.43 847.11,1088.43"/>
    </edge>
    <edge id=":3074998463_0" function="internal">
        <lane id=":3074998463_0_0" index="0" disallow="pedestrian tram rail_urban rail rail_electric rail_fast ship cable_car subway" speed="8.33" length="0.10" shape="835.57,1067.84 835.57,1067.84"/>
    </edge>
    <edge id=":3299276842_0" function="internal">
        <lane id=":3299276842_0_0" index="0" allow="bus coach" speed="13.89" length="8.34" shape="1081.52,1243.39 1083.88,1242.57 1085.74,1242.75 1087.62,1242.94 1090.01,1242.18"/>
        <lane id=":3299276842_0_1" index="1" disallow="pedestrian tram rail_urban rail rail_electric rail_fast ship cable_car subway" speed="13.89" length="8.34" shape="1083.16,1246.14 1090.01,1242.18"/>
    </edge>
    <edge id=":3299276842_w0" function="walkingarea">
        <lane id=":3299276842_w0_0" index="0" allow="pedestrian" speed="2.78" length="8.64" width="2.00" shape="1089.23,1240.78 1088.25,1239.04 1086.56,1239.71 1085.18,1239.81 1083.94,1239.63 1082.71,1239.45 1081.34,1239.58 1079.68,1240.30 1080.70,1242.02 1082.36,1241.30 1083.72,1241.18 1084.94,1241.36 1086.17,1241.55 1087.55,1241.45"/>
    </edge>
    <edge id=":3299276843_0" function="internal">
        <lane id=":3299276843_0_0" index="0" disallow="pedestrian tram rail_urban rail rail_electric rail_fast ship cable_car subway" speed="13.89" length="8.92" shape="1111.56,1237.23 1109.52,1238.73 1108.03,1239.61 1106.48,1240.40 1104.26,1241.62"/>
        <lane id=":3299276843_0_1" index="1" disallow="pedestrian tram rail_urban rail rail_electric rail_fast ship cable_car subway" speed="13.89" length="8.92" shape="1111.56,1237.23 1109.21,1238.35 1107.23,1238.24 1105.18,1238.03 1102.64,1238.86"/>
    </edge>
    <edge id=":3299276843_2" function="internal">
        <lane id=":3299276843_2_0" index="0" disallow="pedestrian tram rail_urban rail rail_electric rail_fast ship cable_car subway" speed="13.89" length="8.63" shape="1100.99,1236.03 1108.50,1231.79"/>
    </edge>
    <edge id=":3299276843_w0" function="walkingarea">
        <lane id=":3299276843_w0_0" index="0" allow="pedestrian" speed="2.78" length="8.47" width="2.00" shape="1105.07,1243.00 1106.08,1244.73 1113.47,1240.31 1112.23,1238.74 1111.07,1239.61 1109.92,1240.37 1108.93,1240.93 1107.92,1241.45 1106.69,1242.09"/>
    </edge>
    <edge id=":3299276843_w1" function="walkingarea">
        <lane id=":3299276843_w1_0" index="0" allow="pedestrian" speed="2.78" length="8.67" width="2.00" shape="1107.72,1230.40 1106.73,1228.66 1099.18,1232.92 1100.16,1234.66"/>
    </edge>
    <edge id=":3913685087_0" function="internal">
        <lane id=":3913685087_0_0" index="0" disallow="pedestrian tram rail_urban rail rail_electric rail_fast ship cable_car subway" speed="13.89" length="0.42" shape="1065.36,1264.34 1064.97,1264.58"/>
        <lane id=":3913685087_0_1" index="1" disallow="pedestrian tram rail_urban rail rail_electric rail_fast ship cable_car subway" speed="13.89" length="0.42" shape="1063.69,1261.62 1063.36,1261.81"/>
    </edge>
    <edge id=":3913685087_2" function="internal">
        <lane id=":3913685087_2_0" index="0" allow="bus coach" speed="13.89" length="0.26" shape="1060.14,1256.28 1060.33,1256.17"/>
        <lane id=":3913685087_2_1" index="1" disallow="pedestrian tram rail_urban rail rail_electric rail_fast ship cable_car subway" speed="13.89" length="0.26" shape="1061.75,1259.05 1062.00,1258.89"/>
    </edge>
    <edge id=":3913685087_w0" function="walkingarea">
        <lane id=":3913685087_w0_0" index="0" allow="pedestrian" speed="2.78" length="0.53" width="2.00" shape="1065.77,1265.96 1066.78,1267.69 1067.23,1267.42 1066.23,1265.69"/>
    </edge>
    <edge id=":3913685087_w1" function="walkingarea">
        <lane id=":3913685087_w1_0" index="0" allow="pedestrian" speed="2.78" length="0.15" width="2.00" shape="1059.49,1254.81 1058.44,1253.10 1058.33,1253.17 1059.34,1254.89"/>
    </edge>
    <edge id=":3913685088_0" function="internal">
        <lane id=":3913685088_0_0" index="0" allow="bus coach" speed="13.89" length="3.00" shape="1035.98,1281.53 1033.39,1283.04"/>
        <lane id=":3913685088_0_1" index="1" disallow="pedestrian tram rail_urban rail rail_electric rail_fast ship cable_car subway" speed="13.89" length="3.00" shape="1034.36,1278.76 1031.77,1280.28"/>
    </edge>
    <edge id=":3913685088_2" function="internal">
        <lane id=":3913685088_2_0" index="0" disallow="pedestrian tram rail_urban rail rail_electric rail_fast ship cable_car subway" speed="13.89" length="3.00" shape="1028.54,1274.75 1031.13,1273.24"/>
        <lane id=":3913685088_2_1" index="1" disallow="pedestrian tram rail_urban rail rail_electric rail_fast ship cable_car subway" speed="13.89" length="3.00" shape="1030.16,1277.52 1032.75,1276.00"/>
    </edge>
    <edge id=":3913685088_w0" function="walkingarea">
        <lane id=":3913685088_w0_0" index="0" allow="pedestrian" speed="2.78" length="3.00" width="2.00" shape="1034.19,1284.42 1035.20,1286.15 1037.79,1284.64 1036.78,1282.91"/>
    </edge>
    <edge id=":6329797007_0" function="internal">
        <lane id=":6329797007_0_0" index="0" disallow="pedestrian tram rail_urban rail rail_electric rail_fast ship cable_car subway" speed="8.33" length="0.32" shape="1004.32,1216.73 1004.25,1216.66 1004.21,1216.61 1004.16,1216.57 1004.09,1216.50"/>
    </edge>
    <edge id=":6329797007_w0" function="walkingarea">
        <lane id=":6329797007_w0_0" index="0" allow="pedestrian" speed="2.78" length="0.10" width="2.00" shape="1003.01,1217.68 1001.66,1219.16 1003.14,1217.81 1003.11,1217.78 1003.09,1217.76 1003.07,1217.75 1003.06,1217.73 1003.04,1217.71"/>
    </edge>
    <edge id=":6329797736_0" function="internal">
        <lane id=":6329797736_0_0" index="0" disallow="pedestrian tram rail_urban rail rail_electric rail_fast ship cable_car subway" speed="8.33" length="0.10" shape="1054.43,1291.73 1054.43,1291.73"/>
    </edge>
    <edge id=":6329797736_w0" function="walkingarea">
        <lane id=":6329797736_w0_0" index="0" allow="pedestrian" speed="2.78" length="0.10" width="2.00" shape="1052.96,1292.36 1051.13,1293.16 1052.96,1292.36"/>
    </edge>
    <edge id=":6329797748_0" function="internal">
        <lane id=":6329797748_0_0" index="0" allow="pedestrian delivery bicycle" speed="5.56" length="0.30" shape="1102.14,1180.35 1102.00,1180.08"/>
    </edge>
    <edge id=":6329797749_0" function="internal">
        <lane id=":6329797749_0_0" index="0" allow="pedestrian delivery bicycle" speed="5.56" length="0.30" shape="1120.74,1215.75 1120.60,1215.49"/>
    </edge>
    <edge id=":6329797763_0" function="internal">
        <lane id=":6329797763_0_0" index="0" allow="bus coach" speed="13.89" length="8.40" shape="1019.25,1291.31 1016.87,1292.12 1014.98,1291.94 1013.10,1291.77 1010.72,1292.58"/>
        <lane id=":6329797763_0_1" index="1" disallow="pedestrian tram rail_urban rail rail_electric rail_fast ship cable_car subway" speed="13.89" length="8.40" shape="1017.63,1288.54 1010.72,1292.58"/>
    </edge>
    <edge id=":6329797766_0" function="internal">
        <lane id=":6329797766_0_0" index="0" disallow="pedestrian tram rail_urban rail rail_electric rail_fast ship cable_car subway" speed="13.89" length="0.30" shape="1078.60,1256.65 1078.34,1256.80"/>
        <lane id=":6329797766_0_1" index="1" disallow="pedestrian tram rail_urban rail rail_electric rail_fast ship cable_car subway" speed="13.89" length="0.30" shape="1076.98,1253.89 1076.73,1254.04"/>
    </edge>
    <edge id=":6329797766_w0" function="walkingarea">
        <lane id=":6329797766_w0_0" index="0" allow="pedestrian" speed="2.78" length="0.31" width="2.00" shape="1079.14,1258.18 1080.15,1259.91 1080.42,1259.76 1079.41,1258.03"/>
    </edge>
    <edge id=":6329797773_0" function="internal">
        <lane id=":6329797773_0_0" index="0" disallow="pedestrian tram rail_urban rail rail_electric rail_fast ship cable_car subway" speed="8.33" length="0.25" shape="1022.75,1236.92 1022.59,1236.73"/>
    </edge>
    <edge id=":6329797773_w0" function="walkingarea">
        <lane id=":6329797773_w0_0" index="0" allow="pedestrian" speed="2.78" length="0.10" width="2.00" shape="1021.41,1237.80 1019.93,1239.15 1021.50,1237.91"/>
    </edge>
    <edge id=":6329797859_0" function="internal">
        <lane id=":6329797859_0_0" index="0" disallow="pedestrian tram rail_urban rail rail_electric rail_fast ship cable_car subway" speed="8.33" length="0.10" shape="1064.01,1305.80 1064.01,1305.80"/>
    </edge>
    <edge id=":6329797859_w0" function="walkingarea">
        <lane id=":6329797859_w0_0" index="0" allow="pedestrian" speed="2.78" length="0.10" width="2.00" shape="1065.48,1305.17 1067.31,1304.37 1065.48,1305.17"/>
    </edge>
    <edge id=":6329797871_0" function="internal">
        <lane id=":6329797871_0_0" index="0" allow="pedestrian delivery bicycle" speed="5.56" length="0.30" shape="1121.97,1211.21 1122.11,1211.48"/>
    </edge>
    <edge id=":6329797872_0" function="internal">
        <lane id=":6329797872_0_0" index="0" allow="pedestrian delivery bicycle" speed="5.56" length="0.30" shape="1123.44,1214.01 1123.58,1214.27"/>
    </edge>
    <edge id=":6329797894_0" function="internal">
        <lane id=":6329797894_0_0" index="0" disallow="pedestrian tram rail_urban rail rail_electric rail_fast ship cable_car subway" speed="13.89" length="0.30" shape="1010.82,1285.11 1011.08,1284.96"/>
        <lane id=":6329797894_0_1" index="1" disallow="pedestrian tram rail_urban rail rail_electric rail_fast ship cable_car subway" speed="13.89" length="0.30" shape="1012.43,1287.87 1012.69,1287.72"/>
    </edge>
    <edge id=":6329797898_0" function="internal">
        <lane id=":6329797898_0_0" index="0" allow="bus coach" speed="13.89" length="0.28" shape="1066.59,1252.30 1066.85,1252.15"/>
        <lane id=":6329797898_0_1" index="1" disallow="pedestrian tram rail_urban rail rail_electric rail_fast ship cable_car subway" speed="13.89" length="0.28" shape="1068.27,1255.03 1068.49,1254.90"/>
    </edge>
    <edge id=":6329797898_w0" function="walkingarea">
        <lane id=":6329797898_w0_0" index="0" allow="pedestrian" speed="2.78" length="0.34" width="2.00" shape="1066.03,1250.78 1065.00,1249.06 1064.70,1249.24 1065.75,1250.94"/>
    </edge>
    <edge id=":6329797905_0" function="internal">
        <lane id=":6329797905_0_0" index="0" disallow="pedestrian tram rail_urban rail rail_electric rail_fast ship cable_car subway" speed="19.44" length="0.17" shape="942.39,1324.39 942.43,1324.36 942.46,1324.34 942.49,1324.33 942.54,1324.31"/>
    </edge>
    <edge id=":6329797906_0" function="internal">
        <lane id=":6329797906_0_0" index="0" disallow="pedestrian tram rail_urban rail rail_electric rail_fast ship cable_car subway" speed="8.33" length="0.38" shape="1020.61,1224.53 1020.73,1224.65 1020.81,1224.73 1020.88,1224.82 1020.99,1224.95"/>
        <lane id=":6329797906_0_1" index="1" disallow="pedestrian tram rail_urban rail rail_electric rail_fast ship cable_car subway" speed="8.33" length="0.38" shape="1018.38,1226.82 1018.42,1226.86 1018.44,1226.89 1018.47,1226.92 1018.50,1226.96"/>
    </edge>
    <edge id=":6329797906_w0" function="walkingarea">
        <lane id=":6329797906_w0_0" index="0" allow="pedestrian" speed="2.78" length="0.87" width="2.00" shape="1022.23,1223.94 1023.79,1222.68 1023.65,1222.52 1023.56,1222.40 1023.47,1222.30 1023.38,1222.21 1023.27,1222.10 1023.12,1221.95 1021.73,1223.39 1021.84,1223.50 1021.92,1223.58 1021.99,1223.65 1022.06,1223.73 1022.13,1223.82"/>
    </edge>
    <edge id=":6329798069_0" function="internal">
        <lane id=":6329798069_0_0" index="0" disallow="pedestrian tram rail_urban rail rail_electric rail_fast ship cable_car subway" speed="8.33" length="0.10" shape="961.78,1188.06 961.87,1188.11"/>
    </edge>
    <edge id=":6329798069_1" function="internal">
        <lane id=":6329798069_1_0" index="0" disallow="pedestrian tram rail_urban rail rail_electric rail_fast ship cable_car subway" speed="8.33" length="0.10" shape="963.23,1185.21 963.32,1185.26"/>
    </edge>
    <edge id=":6329798070_0" function="internal">
        <lane id=":6329798070_0_0" index="0" disallow="pedestrian tram rail_urban rail rail_electric rail_fast ship cable_car subway" speed="8.33" length="2.86" shape="925.62,1167.67 928.25,1168.80"/>
    </edge>
    <edge id=":6329798073_0" function="internal">
        <lane id=":6329798073_0_0" index="0" disallow="pedestrian tram rail_urban rail rail_electric rail_fast ship cable_car subway" speed="13.89" length="0.10" shape="1145.75,1214.16 1145.75,1214.16"/>
    </edge>
    <edge id=":6329798073_1" function="internal">
        <lane id=":6329798073_1_0" index="0" disallow="pedestrian tram rail_urban rail rail_electric rail_fast ship cable_car subway" speed="13.89" length="0.10" shape="1144.15,1211.38 1144.15,1211.38"/>
    </edge>
    <edge id=":6329798073_w0" function="walkingarea">
        <lane id=":6329798073_w0_0" index="0" allow="pedestrian" speed="2.78" length="0.10" width="2.00" shape="1146.55,1215.54 1147.55,1217.28 1146.55,1215.54"/>
    </edge>
    <edge id=":6329798073_w1" function="walkingarea">
        <lane id=":6329798073_w1_0" index="0" allow="pedestrian" speed="2.78" length="0.10" width="2.00" shape="1143.35,1210.00 1142.35,1208.26 1143.35,1210.00"/>
    </edge>
    <edge id=":6329798074_0" function="internal">
        <lane id=":6329798074_0_0" index="0" disallow="pedestrian tram rail_urban rail rail_electric rail_fast ship cable_car subway" speed="13.89" length="0.10" shape="1178.81,1191.41 1178.81,1191.41"/>
    </edge>
    <edge id=":6329798074_w0" function="walkingarea">
        <lane id=":6329798074_w0_0" index="0" allow="pedestrian" speed="2.78" length="0.10" width="2.00" shape="1178.01,1190.03 1177.01,1188.29 1178.01,1190.03"/>
    </edge>
    <edge id=":6329798075_0" function="internal">
        <lane id=":6329798075_0_0" index="0" disallow="pedestrian tram rail_urban rail rail_electric rail_fast ship cable_car subway" speed="13.89" length="0.10" shape="1164.40,1203.41 1164.40,1203.41"/>
    </edge>
    <edge id=":6329798075_w0" function="walkingarea">
        <lane id=":6329798075_w0_0" index="0" allow="pedestrian" speed="2.78" length="0.10" width="2.00" shape="1165.20,1204.79 1166.20,1206.53 1165.20,1204.79"/>
    </edge>
    <edge id=":6329798197_0" function="internal">
        <lane id=":6329798197_0_0" index="0" disallow="pedestrian tram rail_urban rail rail_electric rail_fast ship cable_car subway" speed="8.33" length="0.30" shape="1070.38,1328.57 1070.26,1328.30"/>
    </edge>
    <edge id=":6329798197_1" function="internal">
        <lane id=":6329798197_1_0" index="0" disallow="pedestrian tram rail_urban rail rail_electric rail_fast ship cable_car subway" speed="8.33" length="0.30" shape="1073.20,1327.03 1073.32,1327.31"/>
    </edge>
    <edge id=":6329798197_w0" function="walkingarea">
        <lane id=":6329798197_w0_0" index="0" allow="pedestrian" speed="2.78" length="0.29" width="2.00" shape="1068.79,1328.93 1066.96,1329.73 1067.07,1329.99 1068.91,1329.20"/>
    </edge>
    <edge id=":6329798197_w1" function="walkingarea">
        <lane id=":6329798197_w1_0" index="0" allow="pedestrian" speed="2.78" length="0.31" width="2.00" shape="1074.79,1326.67 1076.63,1325.88 1076.50,1325.60 1074.67,1326.39"/>
    </edge>
    <edge id=":6329798199_w0" function="walkingarea">
        <lane id=":6329798199_w0_0" index="0" allow="pedestrian" speed="2.78" length="3.20" width="3.20" shape="1102.02,1176.68 1104.85,1175.19 1099.19,1178.17 1102.02,1176.68"/>
    </edge>
    <edge id=":949573590_0" function="internal">
        <lane id=":949573590_0_0" index="0" disallow="pedestrian tram rail_urban rail rail_electric rail_fast ship cable_car subway" speed="19.44" length="4.52" shape="961.52,1321.73 957.63,1324.03"/>
    </edge>
    <edge id=":949573590_1" function="internal">
        <lane id=":949573590_1_0" index="0" disallow="pedestrian tram rail_urban rail rail_electric rail_fast ship cable_car subway" speed="19.44" length="11.15" shape="948.80,1321.51 951.55,1320.22 953.49,1319.15 955.45,1317.94 958.24,1316.23"/>
        <lane id=":949573590_1_1" index="1" disallow="pedestrian tram rail_urban rail rail_electric rail_fast ship cable_car subway" speed="19.44" length="11.15" shape="948.80,1321.51 951.77,1320.67 954.22,1320.57 956.73,1320.32 959.88,1318.98"/>
    </edge>
    <edge id=":K0583_0" function="internal">
        <lane id=":K0583_0_0" index="0" allow="bus coach" speed="6.38" length="5.16" shape="1049.59,1280.54 1048.21,1278.30 1046.47,1277.14 1046.04,1277.12"/>
        <lane id=":K0583_0_1" index="1" disallow="pedestrian tram rail_urban rail rail_electric rail_fast ship cable_car subway" speed="7.21" length="7.81" shape="1049.59,1280.54 1047.63,1277.02 1045.43,1274.97 1044.68,1274.79"/>
    </edge>
    <edge id=":K0583_2" function="internal">
        <lane id=":K0583_2_0" index="0" disallow="pedestrian tram rail_urban rail rail_electric rail_fast ship cable_car subway" speed="8.33" length="21.74" shape="1049.59,1280.54 1040.24,1260.91"/>
    </edge>
    <edge id=":K0583_3" function="internal">
        <lane id=":K0583_3_0" index="0" allow="bus coach" speed="10.36" length="17.98" shape="1049.59,1280.54 1048.34,1275.07 1048.68,1269.05 1050.51,1263.65 1050.93,1263.18"/>
        <lane id=":K0583_3_1" index="1" disallow="pedestrian tram rail_urban rail rail_electric rail_fast ship cable_car subway" speed="10.03" length="16.69" shape="1049.59,1280.54 1048.10,1275.15 1048.56,1270.40 1050.98,1266.29 1052.19,1265.33"/>
    </edge>
    <edge id=":K0583_18" function="internal">
        <lane id=":K0583_18_0" index="0" allow="bus coach" speed="6.38" length="4.29" shape="1046.04,1277.12 1044.39,1277.05 1041.95,1278.04"/>
    </edge>
    <edge id=":K0583_19" function="internal">
        <lane id=":K0583_19_0" index="0" disallow="pedestrian tram rail_urban rail rail_electric rail_fast ship cable_car subway" speed="7.21" length="4.54" shape="1044.68,1274.79 1043.00,1274.38 1040.33,1275.28"/>
    </edge>
    <edge id=":K0583_20" function="internal">
        <lane id=":K0583_20_0" index="0" allow="bus coach" speed="10.36" length="4.20" shape="1050.93,1263.18 1053.73,1260.05"/>
    </edge>
    <edge id=":K0583_21" function="internal">
        <lane id=":K0583_21_0" index="0" disallow="pedestrian tram rail_urban rail rail_electric rail_fast ship cable_car subway" speed="10.03" length="4.04" shape="1052.19,1265.33 1055.36,1262.81"/>
    </edge>
    <edge id=":K0583_5" function="internal">
        <lane id=":K0583_5_0" index="0" disallow="pedestrian tram rail_urban rail rail_electric rail_fast ship cable_car subway" speed="8.26" length="9.43" shape="1058.58,1268.29 1054.97,1270.86 1052.75,1273.55 1052.33,1275.00"/>
    </edge>
    <edge id=":K0583_6" function="internal">
        <lane id=":K0583_6_0" index="0" allow="bus coach" speed="13.89" length="19.46" shape="1058.58,1268.29 1041.95,1278.04"/>